BEGIN:VCALENDAR
VERSION:2.0
PRODID:-//ical.marudot.com//iCal Event Maker
CALSCALE:GREGORIAN
BEGIN:VTIMEZONE
TZID:Europe/London
LAST-MODIFIED:20201011T015911Z
TZURL:http://tzurl.org/zoneinfo-outlook/Europe/London
X-LIC-LOCATION:Europe/London
BEGIN:DAYLIGHT
TZNAME:BST
TZOFFSETFROM:+0000
TZOFFSETTO:+0100
DTSTART:19700329T010000
RRULE:FREQ=YEARLY;BYMONTH=3;BYDAY=-1SU
END:DAYLIGHT
BEGIN:STANDARD
TZNAME:GMT
TZOFFSETFROM:+0100
TZOFFSETTO:+0000
DTSTART:19701025T020000
RRULE:FREQ=YEARLY;BYMONTH=10;BYDAY=-1SU
END:STANDARD
END:VTIMEZONE
BEGIN:VEVENT
DTSTAMP:20220316T091632Z
UID:1647422118621-42657@ical.marudot.com
DTSTART;TZID=Europe/London:20220427T131500
DTEND;TZID=Europe/London:20220427T173000
SUMMARY:ARCHER2 Training: HPC for CFD using Code_Saturne Day1
DESCRIPTION:Join link: https://eu.bbcollab.com/guest/ddd011b4979a4a73a94f61d869a86fdd\n\nCourse page: https://www.archer2.ac.uk/training/courses/220427-code-saturne
BEGIN:VALARM
ACTION:DISPLAY
DESCRIPTION:ARCHER2 Training: HPC for CFD using Code_Saturne Day1
TRIGGER:-PT5M
END:VALARM
END:VEVENT
BEGIN:VEVENT
DTSTAMP:20220316T091632Z
UID:1647422126066-84567@ical.marudot.com
DTSTART;TZID=Europe/London:20220428T090000
DTEND;TZID=Europe/London:20220428T123000
SUMMARY:ARCHER2 Training: HPC for CFD using Code_Saturne Day2
DESCRIPTION:Join link: https://eu.bbcollab.com/guest/ddd011b4979a4a73a94f61d869a86fdd\n\nCourse page: https://www.archer2.ac.uk/training/courses/220427-code-saturne
BEGIN:VALARM
ACTION:DISPLAY
DESCRIPTION:ARCHER2 Training: HPC for CFD using Code_Saturne Day2
TRIGGER:-PT5M
END:VALARM
END:VEVENT
END:VCALENDAR